
**** 11/19/14 15:48:41 ******* PSpice Lite (April 2011) ******* ID# 10813 ****

 CIRCUIT FILE FOR EXP 10-1


 ****     CIRCUIT DESCRIPTION


******************************************************************************



VG32 3 2 sin(0,10,200K,0,0,90)
R31 3 1 50
R20 2 0 100
C10 1 0 0.010U IC = 0
.TRAN 0.1E-6 10E-6 0.01E-6 UIC
.PROBE
.END


          JOB CONCLUDED

**** 11/19/14 15:48:41 ******* PSpice Lite (April 2011) ******* ID# 10813 ****

 CIRCUIT FILE FOR EXP 10-1


 ****     JOB STATISTICS SUMMARY


******************************************************************************



  Total job time (using Solver 1)   =        0.00
